/*--------------------------------*- C++ -*----------------------------------*\
| =========                 |                                                 |
| \\      /  F ield         | OpenFOAM: The Open Source CFD Toolbox           |
|  \\    /   O peration     | Version:  avalanche                             |
|   \\  /    A nd           | https://develop.openfoam.com/Community/avalanche|
|    \\/     M anipulation  |                                                 |
\*---------------------------------------------------------------------------*/
FoamFile
{
    version     2.0;
    format      ascii;
    class       dictionary;
    object      faMeshDefinition;
}
// * * * * * * * * * * * * * * * * * * * * * * * * * * * * * * * * * * * * * //

polyMeshPatches  1( terrain );

boundary
{
    walls
    {
        type                patch;
        ownerPolyPatch      terrain;
        neighbourPolyPatch  walls;
    }
    inlet
    {
        type                patch;
        ownerPolyPatch      terrain;
        neighbourPolyPatch  inlet;
    }
    outlet
    {
        type                patch;
        ownerPolyPatch      terrain;
        neighbourPolyPatch  outlet;
    }
}

// ************************************************************************** //
