/*--------------------------------*- C++ -*----------------------------------*\
| =========                 |                                                 |
| \\      /  F ield         | OpenFOAM: The Open Source CFD Toolbox           |
|  \\    /   O peration     | Version:  avalanche                             |
|   \\  /    A nd           | https://develop.openfoam.com/Community/avalanche|
|    \\/     M anipulation  |                                                 |
\*---------------------------------------------------------------------------*/
FoamFile
{
    version     2.0;
    format      ascii;
    class       dictionary;
    object      releaseArea;
}
// * * * * * * * * * * * * * * * * * * * * * * * * * * * * * * * * * * * * * //

fields
{
    hentrain
    {
        default default [0 1 0 0 0 0 0] 1e-5;
        regions
        (
            releaseArea1
            {
                type polygon;
                filltype constant;
                offset (0 0 0);
                vertices
                (
                    ( 20 70  0)
                    ( 20  -70  0)
                    ( 660  -70  0)
                    ( 660 70  0)
                );
                value 1.0;
            }
        );
    }
    
    
    h
    {
        default default [0 1 0 0 0 0 0] 1e-5;
        regions
        (
            releaseArea1
            {
                type polygon;
                filltype constant;
                offset (0 0 0);
                vertices
                (
                    ( 160 20  0)
                    ( 160  -20  0)
                    ( 260  -20  0)
                    ( 260 20  0)
                );
                value 3;
            }
        
            //releaseArea2
            //{
            //    type sphere;
            //    center (100 0 64.8);
            //    r 10.0;
            //    scale 1;
            //}
        );
    }
}

// ************************************************************************* //
