/*--------------------------------*- C++ -*----------------------------------*/

// File was generated by SwiftBlock, a Blender 3D addon.
FoamFile
{
    version     2.0;
    format      ascii;
    class       dictionary;
    object      blockMeshDict;
}
// * * * * * * * * * * * * * * * * * * * * * * * * * * * * * * * * * * * * * //

deltaT          1;
writeInterval   1;

// ************************************************************************* //

geometry
{
}
vertices
(
	(0.00 -0.50 0.00)
	(0.00 -0.50 1.00)
	(0.00 0.50 0.00)
	(0.00 0.50 1.00)
	(1.00 -0.50 0.00)
	(1.00 -0.50 1.00)
	(1.00 0.50 0.00)
	(1.00 0.50 1.00)
);
edges
(
);
faces
(
);
blocks
(
	hex (0 2 3 1 4 6 7 5) (1 1 1)
	simpleGrading (1 1 1)
);
patches
(
	patch frontAndBack
	(
		(2 3 7 6)
		(4 5 1 0)
	)
	patch terrain
	(
		(2 6 4 0)
	)
	patch top
	(
		(7 3 1 5)
	)
	patch inlet
	(
		(0 1 3 2)
	)
	patch outlet
	(
		(6 7 5 4)
	)

);
